<routes> 
                  <vType accel="1.0" decel="4.5" id="standard_car" length="5.0" minGap="2.5" maxSpeed="25" sigma="0.5" />

            <route id="E8" edges="E8 E10"/>
            <route id="E9" edges="E9 E10"/>

    <vehicle id="E80" type="standard_car" route="E8" depart="181.0" departLane="random" departSpeed="10" arrivalLane="random" />
    <vehicle id="E81" type="standard_car" route="E8" depart="220.0" departLane="random" departSpeed="10" arrivalLane="random" />
    <vehicle id="E92" type="standard_car" route="E9" depart="242.0" departLane="random" departSpeed="10" arrivalLane="random" />
    <vehicle id="E83" type="standard_car" route="E8" depart="330.0" departLane="random" departSpeed="10" arrivalLane="random" />
    <vehicle id="E84" type="standard_car" route="E8" depart="386.0" departLane="random" departSpeed="10" arrivalLane="random" />
    <vehicle id="E85" type="standard_car" route="E8" depart="427.0" departLane="random" departSpeed="10" arrivalLane="random" />
    <vehicle id="E86" type="standard_car" route="E8" depart="479.0" departLane="random" departSpeed="10" arrivalLane="random" />
    <vehicle id="E87" type="standard_car" route="E8" depart="486.0" departLane="random" departSpeed="10" arrivalLane="random" />
    <vehicle id="E88" type="standard_car" route="E8" depart="519.0" departLane="random" departSpeed="10" arrivalLane="random" />
    <vehicle id="E99" type="standard_car" route="E9" depart="520.0" departLane="random" departSpeed="10" arrivalLane="random" />
    <vehicle id="E810" type="standard_car" route="E8" depart="637.0" departLane="random" departSpeed="10" arrivalLane="random" />
    <vehicle id="E811" type="standard_car" route="E8" depart="743.0" departLane="random" departSpeed="10" arrivalLane="random" />
    <vehicle id="E912" type="standard_car" route="E9" depart="820.0" departLane="random" departSpeed="10" arrivalLane="random" />
    <vehicle id="E913" type="standard_car" route="E9" depart="849.0" departLane="random" departSpeed="10" arrivalLane="random" />
    <vehicle id="E914" type="standard_car" route="E9" depart="872.0" departLane="random" departSpeed="10" arrivalLane="random" />
    <vehicle id="E815" type="standard_car" route="E8" depart="899.0" departLane="random" departSpeed="10" arrivalLane="random" />
    <vehicle id="E816" type="standard_car" route="E8" depart="900.0" departLane="random" departSpeed="10" arrivalLane="random" />
    <vehicle id="E817" type="standard_car" route="E8" depart="906.0" departLane="random" departSpeed="10" arrivalLane="random" />
    <vehicle id="E818" type="standard_car" route="E8" depart="912.0" departLane="random" departSpeed="10" arrivalLane="random" />
    <vehicle id="E919" type="standard_car" route="E9" depart="915.0" departLane="random" departSpeed="10" arrivalLane="random" />
    <vehicle id="E920" type="standard_car" route="E9" depart="934.0" departLane="random" departSpeed="10" arrivalLane="random" />
    <vehicle id="E821" type="standard_car" route="E8" depart="939.0" departLane="random" departSpeed="10" arrivalLane="random" />
    <vehicle id="E822" type="standard_car" route="E8" depart="952.0" departLane="random" departSpeed="10" arrivalLane="random" />
    <vehicle id="E923" type="standard_car" route="E9" depart="974.0" departLane="random" departSpeed="10" arrivalLane="random" />
    <vehicle id="E824" type="standard_car" route="E8" depart="984.0" departLane="random" departSpeed="10" arrivalLane="random" />
    <vehicle id="E925" type="standard_car" route="E9" depart="985.0" departLane="random" departSpeed="10" arrivalLane="random" />
    <vehicle id="E926" type="standard_car" route="E9" depart="987.0" departLane="random" departSpeed="10" arrivalLane="random" />
    <vehicle id="E827" type="standard_car" route="E8" depart="993.0" departLane="random" departSpeed="10" arrivalLane="random" />
    <vehicle id="E828" type="standard_car" route="E8" depart="996.0" departLane="random" departSpeed="10" arrivalLane="random" />
    <vehicle id="E829" type="standard_car" route="E8" depart="1011.0" departLane="random" departSpeed="10" arrivalLane="random" />
    <vehicle id="E830" type="standard_car" route="E8" depart="1017.0" departLane="random" departSpeed="10" arrivalLane="random" />
    <vehicle id="E831" type="standard_car" route="E8" depart="1021.0" departLane="random" departSpeed="10" arrivalLane="random" />
    <vehicle id="E832" type="standard_car" route="E8" depart="1025.0" departLane="random" departSpeed="10" arrivalLane="random" />
    <vehicle id="E933" type="standard_car" route="E9" depart="1026.0" departLane="random" departSpeed="10" arrivalLane="random" />
    <vehicle id="E934" type="standard_car" route="E9" depart="1030.0" departLane="random" departSpeed="10" arrivalLane="random" />
    <vehicle id="E835" type="standard_car" route="E8" depart="1033.0" departLane="random" departSpeed="10" arrivalLane="random" />
    <vehicle id="E836" type="standard_car" route="E8" depart="1038.0" departLane="random" departSpeed="10" arrivalLane="random" />
    <vehicle id="E837" type="standard_car" route="E8" depart="1040.0" departLane="random" departSpeed="10" arrivalLane="random" />
    <vehicle id="E938" type="standard_car" route="E9" depart="1045.0" departLane="random" departSpeed="10" arrivalLane="random" />
    <vehicle id="E839" type="standard_car" route="E8" depart="1049.0" departLane="random" departSpeed="10" arrivalLane="random" />
    <vehicle id="E840" type="standard_car" route="E8" depart="1054.0" departLane="random" departSpeed="10" arrivalLane="random" />
    <vehicle id="E941" type="standard_car" route="E9" depart="1089.0" departLane="random" departSpeed="10" arrivalLane="random" />
    <vehicle id="E842" type="standard_car" route="E8" depart="1089.0" departLane="random" departSpeed="10" arrivalLane="random" />
    <vehicle id="E843" type="standard_car" route="E8" depart="1092.0" departLane="random" departSpeed="10" arrivalLane="random" />
    <vehicle id="E844" type="standard_car" route="E8" depart="1092.0" departLane="random" departSpeed="10" arrivalLane="random" />
    <vehicle id="E945" type="standard_car" route="E9" depart="1093.0" departLane="random" departSpeed="10" arrivalLane="random" />
    <vehicle id="E846" type="standard_car" route="E8" depart="1094.0" departLane="random" departSpeed="10" arrivalLane="random" />
    <vehicle id="E847" type="standard_car" route="E8" depart="1099.0" departLane="random" departSpeed="10" arrivalLane="random" />
    <vehicle id="E848" type="standard_car" route="E8" depart="1104.0" departLane="random" departSpeed="10" arrivalLane="random" />
    <vehicle id="E849" type="standard_car" route="E8" depart="1139.0" departLane="random" departSpeed="10" arrivalLane="random" />
    <vehicle id="E850" type="standard_car" route="E8" depart="1141.0" departLane="random" departSpeed="10" arrivalLane="random" />
    <vehicle id="E851" type="standard_car" route="E8" depart="1148.0" departLane="random" departSpeed="10" arrivalLane="random" />
    <vehicle id="E852" type="standard_car" route="E8" depart="1151.0" departLane="random" departSpeed="10" arrivalLane="random" />
    <vehicle id="E853" type="standard_car" route="E8" depart="1151.0" departLane="random" departSpeed="10" arrivalLane="random" />
    <vehicle id="E954" type="standard_car" route="E9" depart="1153.0" departLane="random" departSpeed="10" arrivalLane="random" />
    <vehicle id="E855" type="standard_car" route="E8" depart="1155.0" departLane="random" departSpeed="10" arrivalLane="random" />
    <vehicle id="E856" type="standard_car" route="E8" depart="1166.0" departLane="random" departSpeed="10" arrivalLane="random" />
    <vehicle id="E857" type="standard_car" route="E8" depart="1175.0" departLane="random" departSpeed="10" arrivalLane="random" />
    <vehicle id="E958" type="standard_car" route="E9" depart="1177.0" departLane="random" departSpeed="10" arrivalLane="random" />
    <vehicle id="E859" type="standard_car" route="E8" depart="1178.0" departLane="random" departSpeed="10" arrivalLane="random" />
    <vehicle id="E960" type="standard_car" route="E9" depart="1180.0" departLane="random" departSpeed="10" arrivalLane="random" />
    <vehicle id="E861" type="standard_car" route="E8" depart="1188.0" departLane="random" departSpeed="10" arrivalLane="random" />
    <vehicle id="E862" type="standard_car" route="E8" depart="1196.0" departLane="random" departSpeed="10" arrivalLane="random" />
    <vehicle id="E863" type="standard_car" route="E8" depart="1198.0" departLane="random" departSpeed="10" arrivalLane="random" />
    <vehicle id="E864" type="standard_car" route="E8" depart="1201.0" departLane="random" departSpeed="10" arrivalLane="random" />
    <vehicle id="E865" type="standard_car" route="E8" depart="1204.0" departLane="random" departSpeed="10" arrivalLane="random" />
    <vehicle id="E866" type="standard_car" route="E8" depart="1209.0" departLane="random" departSpeed="10" arrivalLane="random" />
    <vehicle id="E967" type="standard_car" route="E9" depart="1213.0" departLane="random" departSpeed="10" arrivalLane="random" />
    <vehicle id="E968" type="standard_car" route="E9" depart="1220.0" departLane="random" departSpeed="10" arrivalLane="random" />
    <vehicle id="E869" type="standard_car" route="E8" depart="1225.0" departLane="random" departSpeed="10" arrivalLane="random" />
    <vehicle id="E970" type="standard_car" route="E9" depart="1230.0" departLane="random" departSpeed="10" arrivalLane="random" />
    <vehicle id="E871" type="standard_car" route="E8" depart="1233.0" departLane="random" departSpeed="10" arrivalLane="random" />
    <vehicle id="E872" type="standard_car" route="E8" depart="1236.0" departLane="random" departSpeed="10" arrivalLane="random" />
    <vehicle id="E873" type="standard_car" route="E8" depart="1243.0" departLane="random" departSpeed="10" arrivalLane="random" />
    <vehicle id="E874" type="standard_car" route="E8" depart="1245.0" departLane="random" departSpeed="10" arrivalLane="random" />
    <vehicle id="E875" type="standard_car" route="E8" depart="1254.0" departLane="random" departSpeed="10" arrivalLane="random" />
    <vehicle id="E876" type="standard_car" route="E8" depart="1255.0" departLane="random" departSpeed="10" arrivalLane="random" />
    <vehicle id="E877" type="standard_car" route="E8" depart="1257.0" departLane="random" departSpeed="10" arrivalLane="random" />
    <vehicle id="E878" type="standard_car" route="E8" depart="1258.0" departLane="random" departSpeed="10" arrivalLane="random" />
    <vehicle id="E879" type="standard_car" route="E8" depart="1259.0" departLane="random" departSpeed="10" arrivalLane="random" />
    <vehicle id="E980" type="standard_car" route="E9" depart="1266.0" departLane="random" departSpeed="10" arrivalLane="random" />
    <vehicle id="E881" type="standard_car" route="E8" depart="1268.0" departLane="random" departSpeed="10" arrivalLane="random" />
    <vehicle id="E882" type="standard_car" route="E8" depart="1271.0" departLane="random" departSpeed="10" arrivalLane="random" />
    <vehicle id="E883" type="standard_car" route="E8" depart="1271.0" departLane="random" departSpeed="10" arrivalLane="random" />
    <vehicle id="E984" type="standard_car" route="E9" depart="1278.0" departLane="random" departSpeed="10" arrivalLane="random" />
    <vehicle id="E885" type="standard_car" route="E8" depart="1281.0" departLane="random" departSpeed="10" arrivalLane="random" />
    <vehicle id="E886" type="standard_car" route="E8" depart="1287.0" departLane="random" departSpeed="10" arrivalLane="random" />
    <vehicle id="E987" type="standard_car" route="E9" depart="1300.0" departLane="random" departSpeed="10" arrivalLane="random" />
    <vehicle id="E888" type="standard_car" route="E8" depart="1304.0" departLane="random" departSpeed="10" arrivalLane="random" />
    <vehicle id="E889" type="standard_car" route="E8" depart="1305.0" departLane="random" departSpeed="10" arrivalLane="random" />
    <vehicle id="E990" type="standard_car" route="E9" depart="1315.0" departLane="random" departSpeed="10" arrivalLane="random" />
    <vehicle id="E891" type="standard_car" route="E8" depart="1316.0" departLane="random" departSpeed="10" arrivalLane="random" />
    <vehicle id="E992" type="standard_car" route="E9" depart="1316.0" departLane="random" departSpeed="10" arrivalLane="random" />
    <vehicle id="E893" type="standard_car" route="E8" depart="1331.0" departLane="random" departSpeed="10" arrivalLane="random" />
    <vehicle id="E894" type="standard_car" route="E8" depart="1332.0" departLane="random" departSpeed="10" arrivalLane="random" />
    <vehicle id="E895" type="standard_car" route="E8" depart="1333.0" departLane="random" departSpeed="10" arrivalLane="random" />
    <vehicle id="E896" type="standard_car" route="E8" depart="1337.0" departLane="random" departSpeed="10" arrivalLane="random" />
    <vehicle id="E997" type="standard_car" route="E9" depart="1343.0" departLane="random" departSpeed="10" arrivalLane="random" />
    <vehicle id="E898" type="standard_car" route="E8" depart="1353.0" departLane="random" departSpeed="10" arrivalLane="random" />
    <vehicle id="E899" type="standard_car" route="E8" depart="1353.0" departLane="random" departSpeed="10" arrivalLane="random" />
    <vehicle id="E9100" type="standard_car" route="E9" depart="1359.0" departLane="random" departSpeed="10" arrivalLane="random" />
    <vehicle id="E8101" type="standard_car" route="E8" depart="1360.0" departLane="random" departSpeed="10" arrivalLane="random" />
    <vehicle id="E8102" type="standard_car" route="E8" depart="1362.0" departLane="random" departSpeed="10" arrivalLane="random" />
    <vehicle id="E8103" type="standard_car" route="E8" depart="1363.0" departLane="random" departSpeed="10" arrivalLane="random" />
    <vehicle id="E8104" type="standard_car" route="E8" depart="1366.0" departLane="random" departSpeed="10" arrivalLane="random" />
    <vehicle id="E8105" type="standard_car" route="E8" depart="1368.0" departLane="random" departSpeed="10" arrivalLane="random" />
    <vehicle id="E9106" type="standard_car" route="E9" depart="1370.0" departLane="random" departSpeed="10" arrivalLane="random" />
    <vehicle id="E8107" type="standard_car" route="E8" depart="1371.0" departLane="random" departSpeed="10" arrivalLane="random" />
    <vehicle id="E9108" type="standard_car" route="E9" depart="1372.0" departLane="random" departSpeed="10" arrivalLane="random" />
    <vehicle id="E8109" type="standard_car" route="E8" depart="1373.0" departLane="random" departSpeed="10" arrivalLane="random" />
    <vehicle id="E8110" type="standard_car" route="E8" depart="1378.0" departLane="random" departSpeed="10" arrivalLane="random" />
    <vehicle id="E8111" type="standard_car" route="E8" depart="1387.0" departLane="random" departSpeed="10" arrivalLane="random" />
    <vehicle id="E8112" type="standard_car" route="E8" depart="1387.0" departLane="random" departSpeed="10" arrivalLane="random" />
    <vehicle id="E8113" type="standard_car" route="E8" depart="1387.0" departLane="random" departSpeed="10" arrivalLane="random" />
    <vehicle id="E8114" type="standard_car" route="E8" depart="1390.0" departLane="random" departSpeed="10" arrivalLane="random" />
    <vehicle id="E8115" type="standard_car" route="E8" depart="1392.0" departLane="random" departSpeed="10" arrivalLane="random" />
    <vehicle id="E8116" type="standard_car" route="E8" depart="1394.0" departLane="random" departSpeed="10" arrivalLane="random" />
    <vehicle id="E8117" type="standard_car" route="E8" depart="1395.0" departLane="random" departSpeed="10" arrivalLane="random" />
    <vehicle id="E8118" type="standard_car" route="E8" depart="1401.0" departLane="random" departSpeed="10" arrivalLane="random" />
    <vehicle id="E8119" type="standard_car" route="E8" depart="1402.0" departLane="random" departSpeed="10" arrivalLane="random" />
    <vehicle id="E8120" type="standard_car" route="E8" depart="1404.0" departLane="random" departSpeed="10" arrivalLane="random" />
    <vehicle id="E8121" type="standard_car" route="E8" depart="1406.0" departLane="random" departSpeed="10" arrivalLane="random" />
    <vehicle id="E8122" type="standard_car" route="E8" depart="1407.0" departLane="random" departSpeed="10" arrivalLane="random" />
    <vehicle id="E8123" type="standard_car" route="E8" depart="1409.0" departLane="random" departSpeed="10" arrivalLane="random" />
    <vehicle id="E9124" type="standard_car" route="E9" depart="1413.0" departLane="random" departSpeed="10" arrivalLane="random" />
    <vehicle id="E8125" type="standard_car" route="E8" depart="1417.0" departLane="random" departSpeed="10" arrivalLane="random" />
    <vehicle id="E8126" type="standard_car" route="E8" depart="1417.0" departLane="random" departSpeed="10" arrivalLane="random" />
    <vehicle id="E9127" type="standard_car" route="E9" depart="1420.0" departLane="random" departSpeed="10" arrivalLane="random" />
    <vehicle id="E9128" type="standard_car" route="E9" depart="1421.0" departLane="random" departSpeed="10" arrivalLane="random" />
    <vehicle id="E8129" type="standard_car" route="E8" depart="1423.0" departLane="random" departSpeed="10" arrivalLane="random" />
    <vehicle id="E8130" type="standard_car" route="E8" depart="1423.0" departLane="random" departSpeed="10" arrivalLane="random" />
    <vehicle id="E8131" type="standard_car" route="E8" depart="1428.0" departLane="random" departSpeed="10" arrivalLane="random" />
    <vehicle id="E8132" type="standard_car" route="E8" depart="1432.0" departLane="random" departSpeed="10" arrivalLane="random" />
    <vehicle id="E9133" type="standard_car" route="E9" depart="1433.0" departLane="random" departSpeed="10" arrivalLane="random" />
    <vehicle id="E8134" type="standard_car" route="E8" depart="1441.0" departLane="random" departSpeed="10" arrivalLane="random" />
    <vehicle id="E9135" type="standard_car" route="E9" depart="1447.0" departLane="random" departSpeed="10" arrivalLane="random" />
    <vehicle id="E8136" type="standard_car" route="E8" depart="1449.0" departLane="random" departSpeed="10" arrivalLane="random" />
    <vehicle id="E8137" type="standard_car" route="E8" depart="1455.0" departLane="random" departSpeed="10" arrivalLane="random" />
    <vehicle id="E8138" type="standard_car" route="E8" depart="1455.0" departLane="random" departSpeed="10" arrivalLane="random" />
    <vehicle id="E8139" type="standard_car" route="E8" depart="1461.0" departLane="random" departSpeed="10" arrivalLane="random" />
    <vehicle id="E8140" type="standard_car" route="E8" depart="1463.0" departLane="random" departSpeed="10" arrivalLane="random" />
    <vehicle id="E9141" type="standard_car" route="E9" depart="1468.0" departLane="random" departSpeed="10" arrivalLane="random" />
    <vehicle id="E8142" type="standard_car" route="E8" depart="1469.0" departLane="random" departSpeed="10" arrivalLane="random" />
    <vehicle id="E8143" type="standard_car" route="E8" depart="1475.0" departLane="random" departSpeed="10" arrivalLane="random" />
    <vehicle id="E8144" type="standard_car" route="E8" depart="1480.0" departLane="random" departSpeed="10" arrivalLane="random" />
    <vehicle id="E8145" type="standard_car" route="E8" depart="1480.0" departLane="random" departSpeed="10" arrivalLane="random" />
    <vehicle id="E8146" type="standard_car" route="E8" depart="1483.0" departLane="random" departSpeed="10" arrivalLane="random" />
    <vehicle id="E8147" type="standard_car" route="E8" depart="1484.0" departLane="random" departSpeed="10" arrivalLane="random" />
    <vehicle id="E8148" type="standard_car" route="E8" depart="1493.0" departLane="random" departSpeed="10" arrivalLane="random" />
    <vehicle id="E9149" type="standard_car" route="E9" depart="1494.0" departLane="random" departSpeed="10" arrivalLane="random" />
    <vehicle id="E8150" type="standard_car" route="E8" depart="1496.0" departLane="random" departSpeed="10" arrivalLane="random" />
    <vehicle id="E8151" type="standard_car" route="E8" depart="1498.0" departLane="random" departSpeed="10" arrivalLane="random" />
    <vehicle id="E8152" type="standard_car" route="E8" depart="1503.0" departLane="random" departSpeed="10" arrivalLane="random" />
    <vehicle id="E8153" type="standard_car" route="E8" depart="1505.0" departLane="random" departSpeed="10" arrivalLane="random" />
    <vehicle id="E8154" type="standard_car" route="E8" depart="1511.0" departLane="random" departSpeed="10" arrivalLane="random" />
    <vehicle id="E9155" type="standard_car" route="E9" depart="1522.0" departLane="random" departSpeed="10" arrivalLane="random" />
    <vehicle id="E9156" type="standard_car" route="E9" depart="1522.0" departLane="random" departSpeed="10" arrivalLane="random" />
    <vehicle id="E9157" type="standard_car" route="E9" depart="1528.0" departLane="random" departSpeed="10" arrivalLane="random" />
    <vehicle id="E8158" type="standard_car" route="E8" depart="1536.0" departLane="random" departSpeed="10" arrivalLane="random" />
    <vehicle id="E8159" type="standard_car" route="E8" depart="1541.0" departLane="random" departSpeed="10" arrivalLane="random" />
    <vehicle id="E8160" type="standard_car" route="E8" depart="1542.0" departLane="random" departSpeed="10" arrivalLane="random" />
    <vehicle id="E9161" type="standard_car" route="E9" depart="1550.0" departLane="random" departSpeed="10" arrivalLane="random" />
    <vehicle id="E9162" type="standard_car" route="E9" depart="1552.0" departLane="random" departSpeed="10" arrivalLane="random" />
    <vehicle id="E8163" type="standard_car" route="E8" depart="1553.0" departLane="random" departSpeed="10" arrivalLane="random" />
    <vehicle id="E8164" type="standard_car" route="E8" depart="1555.0" departLane="random" departSpeed="10" arrivalLane="random" />
    <vehicle id="E8165" type="standard_car" route="E8" depart="1555.0" departLane="random" departSpeed="10" arrivalLane="random" />
    <vehicle id="E8166" type="standard_car" route="E8" depart="1555.0" departLane="random" departSpeed="10" arrivalLane="random" />
    <vehicle id="E8167" type="standard_car" route="E8" depart="1557.0" departLane="random" departSpeed="10" arrivalLane="random" />
    <vehicle id="E9168" type="standard_car" route="E9" depart="1558.0" departLane="random" departSpeed="10" arrivalLane="random" />
    <vehicle id="E8169" type="standard_car" route="E8" depart="1558.0" departLane="random" departSpeed="10" arrivalLane="random" />
    <vehicle id="E9170" type="standard_car" route="E9" depart="1561.0" departLane="random" departSpeed="10" arrivalLane="random" />
    <vehicle id="E8171" type="standard_car" route="E8" depart="1562.0" departLane="random" departSpeed="10" arrivalLane="random" />
    <vehicle id="E8172" type="standard_car" route="E8" depart="1565.0" departLane="random" departSpeed="10" arrivalLane="random" />
    <vehicle id="E8173" type="standard_car" route="E8" depart="1566.0" departLane="random" departSpeed="10" arrivalLane="random" />
    <vehicle id="E8174" type="standard_car" route="E8" depart="1567.0" departLane="random" departSpeed="10" arrivalLane="random" />
    <vehicle id="E8175" type="standard_car" route="E8" depart="1568.0" departLane="random" departSpeed="10" arrivalLane="random" />
    <vehicle id="E8176" type="standard_car" route="E8" depart="1568.0" departLane="random" departSpeed="10" arrivalLane="random" />
    <vehicle id="E8177" type="standard_car" route="E8" depart="1568.0" departLane="random" departSpeed="10" arrivalLane="random" />
    <vehicle id="E8178" type="standard_car" route="E8" depart="1568.0" departLane="random" departSpeed="10" arrivalLane="random" />
    <vehicle id="E8179" type="standard_car" route="E8" depart="1571.0" departLane="random" departSpeed="10" arrivalLane="random" />
    <vehicle id="E9180" type="standard_car" route="E9" depart="1574.0" departLane="random" departSpeed="10" arrivalLane="random" />
    <vehicle id="E8181" type="standard_car" route="E8" depart="1574.0" departLane="random" departSpeed="10" arrivalLane="random" />
    <vehicle id="E8182" type="standard_car" route="E8" depart="1575.0" departLane="random" departSpeed="10" arrivalLane="random" />
    <vehicle id="E8183" type="standard_car" route="E8" depart="1576.0" departLane="random" departSpeed="10" arrivalLane="random" />
    <vehicle id="E8184" type="standard_car" route="E8" depart="1577.0" departLane="random" departSpeed="10" arrivalLane="random" />
    <vehicle id="E8185" type="standard_car" route="E8" depart="1577.0" departLane="random" departSpeed="10" arrivalLane="random" />
    <vehicle id="E8186" type="standard_car" route="E8" depart="1580.0" departLane="random" departSpeed="10" arrivalLane="random" />
    <vehicle id="E8187" type="standard_car" route="E8" depart="1581.0" departLane="random" departSpeed="10" arrivalLane="random" />
    <vehicle id="E8188" type="standard_car" route="E8" depart="1583.0" departLane="random" departSpeed="10" arrivalLane="random" />
    <vehicle id="E9189" type="standard_car" route="E9" depart="1583.0" departLane="random" departSpeed="10" arrivalLane="random" />
    <vehicle id="E8190" type="standard_car" route="E8" depart="1586.0" departLane="random" departSpeed="10" arrivalLane="random" />
    <vehicle id="E9191" type="standard_car" route="E9" depart="1586.0" departLane="random" departSpeed="10" arrivalLane="random" />
    <vehicle id="E8192" type="standard_car" route="E8" depart="1587.0" departLane="random" departSpeed="10" arrivalLane="random" />
    <vehicle id="E8193" type="standard_car" route="E8" depart="1591.0" departLane="random" departSpeed="10" arrivalLane="random" />
    <vehicle id="E8194" type="standard_car" route="E8" depart="1593.0" departLane="random" departSpeed="10" arrivalLane="random" />
    <vehicle id="E9195" type="standard_car" route="E9" depart="1594.0" departLane="random" departSpeed="10" arrivalLane="random" />
    <vehicle id="E8196" type="standard_car" route="E8" depart="1595.0" departLane="random" departSpeed="10" arrivalLane="random" />
    <vehicle id="E8197" type="standard_car" route="E8" depart="1596.0" departLane="random" departSpeed="10" arrivalLane="random" />
    <vehicle id="E8198" type="standard_car" route="E8" depart="1596.0" departLane="random" departSpeed="10" arrivalLane="random" />
    <vehicle id="E8199" type="standard_car" route="E8" depart="1597.0" departLane="random" departSpeed="10" arrivalLane="random" />
    <vehicle id="E9200" type="standard_car" route="E9" depart="1597.0" departLane="random" departSpeed="10" arrivalLane="random" />
    <vehicle id="E8201" type="standard_car" route="E8" depart="1600.0" departLane="random" departSpeed="10" arrivalLane="random" />
    <vehicle id="E8202" type="standard_car" route="E8" depart="1602.0" departLane="random" departSpeed="10" arrivalLane="random" />
    <vehicle id="E8203" type="standard_car" route="E8" depart="1605.0" departLane="random" departSpeed="10" arrivalLane="random" />
    <vehicle id="E8204" type="standard_car" route="E8" depart="1606.0" departLane="random" departSpeed="10" arrivalLane="random" />
    <vehicle id="E8205" type="standard_car" route="E8" depart="1606.0" departLane="random" departSpeed="10" arrivalLane="random" />
    <vehicle id="E8206" type="standard_car" route="E8" depart="1608.0" departLane="random" departSpeed="10" arrivalLane="random" />
    <vehicle id="E8207" type="standard_car" route="E8" depart="1609.0" departLane="random" departSpeed="10" arrivalLane="random" />
    <vehicle id="E8208" type="standard_car" route="E8" depart="1609.0" departLane="random" departSpeed="10" arrivalLane="random" />
    <vehicle id="E8209" type="standard_car" route="E8" depart="1613.0" departLane="random" departSpeed="10" arrivalLane="random" />
    <vehicle id="E8210" type="standard_car" route="E8" depart="1615.0" departLane="random" departSpeed="10" arrivalLane="random" />
    <vehicle id="E8211" type="standard_car" route="E8" depart="1615.0" departLane="random" departSpeed="10" arrivalLane="random" />
    <vehicle id="E8212" type="standard_car" route="E8" depart="1616.0" departLane="random" departSpeed="10" arrivalLane="random" />
    <vehicle id="E8213" type="standard_car" route="E8" depart="1628.0" departLane="random" departSpeed="10" arrivalLane="random" />
    <vehicle id="E8214" type="standard_car" route="E8" depart="1628.0" departLane="random" departSpeed="10" arrivalLane="random" />
    <vehicle id="E8215" type="standard_car" route="E8" depart="1628.0" departLane="random" departSpeed="10" arrivalLane="random" />
    <vehicle id="E8216" type="standard_car" route="E8" depart="1628.0" departLane="random" departSpeed="10" arrivalLane="random" />
    <vehicle id="E8217" type="standard_car" route="E8" depart="1629.0" departLane="random" departSpeed="10" arrivalLane="random" />
    <vehicle id="E8218" type="standard_car" route="E8" depart="1629.0" departLane="random" departSpeed="10" arrivalLane="random" />
    <vehicle id="E9219" type="standard_car" route="E9" depart="1631.0" departLane="random" departSpeed="10" arrivalLane="random" />
    <vehicle id="E8220" type="standard_car" route="E8" depart="1632.0" departLane="random" departSpeed="10" arrivalLane="random" />
    <vehicle id="E8221" type="standard_car" route="E8" depart="1634.0" departLane="random" departSpeed="10" arrivalLane="random" />
    <vehicle id="E8222" type="standard_car" route="E8" depart="1634.0" departLane="random" departSpeed="10" arrivalLane="random" />
    <vehicle id="E8223" type="standard_car" route="E8" depart="1635.0" departLane="random" departSpeed="10" arrivalLane="random" />
    <vehicle id="E9224" type="standard_car" route="E9" depart="1635.0" departLane="random" departSpeed="10" arrivalLane="random" />
    <vehicle id="E8225" type="standard_car" route="E8" depart="1635.0" departLane="random" departSpeed="10" arrivalLane="random" />